out_measurements_parameter_topology_physical_preview/cases_parameter_error/case_param_topology_err_950742623919.m
function mpc = case_param_topology_err_950742623919
mpc.version = '2';
mpc.baseMVA = 100;

mpc.bus = [
    1 3 0 0 0 0 1 1.06 0 135 1 2 0 0 0 0 0 0;
    2 2 21.7 12.7 0 0 1 1.045 -35.6374746937 135 1 2 0 0 0 0 0 0;
    3 2 94.2 19 0 0 1 1.01 -40.5423982561 135 1 2 0 0 0 0 0 0;
    4 1 47.8 -3.9 0 0 1 1.01344991611 -35.2740420437 135 1 2 0 0 0 0 0 0;
    5 1 7.6 1.6 0 0 1 1.00937148919 -31.6242108946 135 1 2 0 0 0 0 0 0;
    6 2 11.2 7.5 0 0 1 1.07 -37.9402992276 0.208 1 2 0 0 0 0 0 0;
    7 1 0 0 0 0 1 1.04681354362 -38.2524118934 14 1 2 0 0 0 0 0 0;
    8 2 0 0 0 0 1 1.09 -38.2524118934 12 1 2 0 0 0 0 0 0;
    9 1 29.5 16.6 0 19 1 1.03848354146 -39.7809413197 0.208 1 2 0 0 0 0 0 0;
    10 1 9 5.8 0 0 1 1.03621531241 -39.7377146125 0.208 1 2 0 0 0 0 0 0;
    11 1 3.5 1.8 0 0 1 1.04902545226 -38.965974235 0.208 1 2 0 0 0 0 0 0;
    12 1 6.1 1.6 0 0 1 1.05534706707 -38.7290213821 0.208 1 2 0 0 0 0 0 0;
    13 1 13.5 5.8 0 0 1 1.05116194042 -38.7475585195 0.208 1 2 0 0 0 0 0 0;
    14 1 14.9 5 0 0 1 1.01574896958 -41.2585601928 0.208 1 2 0 0 0 0 0 0;
];

mpc.gen = [
    1 259.394036303 29.6942323831 0 0 1.06 1 1 1000000000 -1000000000 0 0 0 0 0 0 0 0 0 0 0 0 0 0 0 1;
    2 40 66.9077686071 1000000000 -1000000000 1.045 nan 1 1000000000 -1000000000 0 0 0 0 0 0 0 0 0 0 0 0 0 0 0 0;
    3 0 30.3913338184 2000000000 -2000000000 1.01 nan 1 2000000000 -2000000000 0 0 0 0 0 0 0 0 0 0 0 0 0 0 0 0;
    6 0 51.2760711908 1000000000 -1000000000 1.07 nan 1 1000000000 -1000000000 0 0 0 0 0 0 0 0 0 0 0 0 0 0 0 0;
    8 0 26.7233819962 1000000000 -1000000000 1.09 nan 1 1000000000 -1000000000 0 0 0 0 0 0 0 0 0 0 0 0 0 0 0 0;
];

mpc.branch = [
    1 5 0.05403 0.22304 0.0492 100 0 0 0 0 1 -360 360 259.394036303 29.6942323831 -226.532290859 100.691203201 0 0 0 0 0;
    2 3 0.04699 0.19797 0.0438 100 0 0 0 0 1 -360 360 47.7433117149 6.7035432566 -46.7268774881 -7.046835166 0 0 0 0 0;
    2 4 0.05811 0.17632 0.034 100 0 0 0 0 1 -360 360 2.12577808195 16.1539099408 -1.95076470511 -19.225356153 0 0 0 0 0;
    2 5 0.05695 0.17388 0.0346 100 0 0 0 0 1 -360 360 -31.5690897969 31.3503154408 32.6650252311 -31.6559809093 0 0 0 0 0;
    3 4 0.06701 0.17103 0.0128 100 0 0 0 0 1 -360 360 -47.4731225119 18.438168871 49.1929855622 -15.3587484007 0 0 0 0 0;
    4 5 0.01335 0.04211 0 100 0 0 0 0 1 -360 360 -136.271089166 57.9441326073 139.121204801 -48.9539925756 0 0 0 0 0;
    4 7 0 0.20912 -0 100 0 0 0 0 1 -360 360 26.3594558844 -15.4836140625 -26.3594558844 17.3864426734 0 0 0 0 0;
    4 9 0 0.55618 -0 100 0 0 0 0 1 -360 360 14.8694124241 -3.97641399123 -14.8694124241 5.25932505527 0 0 0 0 0;
    5 6 0 0.25202 -0 100 0 0 0 0 1 -360 360 47.1460608261 -21.6812297164 -47.1460608261 28.3422592152 0 0 0 0 0;
    6 11 0.09498 0.1989 0 100 0 0 0 0 1 -360 360 12.6487999579 5.33372679383 -12.4924709731 -5.00635434631 0 0 0 0 0;
    6 12 0.12291 0.25581 0 100 0 0 0 0 1 -360 360 7.34559926953 2.64147321335 -7.2801826691 -2.50532301763 0 0 0 0 0;
    6 13 0.06615 0.13027 0 100 0 0 0 0 1 -360 360 15.9516615987 7.458611924 -15.772499966 -7.10578674036 0 0 0 0 0;
    7 8 0 0.17615 -0 100 0 0 0 0 1 -360 360 7.81489200892e-14 -25.6645855449 -7.86439473118e-14 26.7233820334 0 0 0 0 0;
    7 9 0 0.11001 -0 100 0 0 0 0 1 -360 360 26.3594558844 8.27814287147 -26.3594558844 -7.51181187571 0 0 0 0 0;
    9 10 0.03181 0.0845 0 100 0 0 0 0 1 -360 360 0.0777335719463 2.75869555497 -0.0754870189513 -2.75272781753 0 0 0 0 0;
    9 14 0.12711 0.27038 0 100 0 0 0 0 1 -360 360 11.6511347366 3.38430451744 -11.4776363087 -3.01525011625 0 0 0 0 0;
    10 11 0.08205 0.19207 0 100 0 0 0 0 1 -360 360 -8.92451298105 -3.04727218247 8.99247097315 3.20635434631 0 0 0 0 0;
    12 13 0.22092 0.19988 0 100 0 0 0 0 1 -360 360 1.1801826691 0.905323017634 -1.17579416915 -0.901352470062 0 0 0 0 0;
    13 14 0.17093 1.46596054863 0 100 0 0 0 0 1 -360 360 3.44829413512 2.20713921042 -3.42236369132 -1.98474988375 0 0 0 0 0;
];

